T42/data/state_estimation/ES_Dx_03_2040_W_Bd/ES_Dx_03_2040_W_Bd_t13.csv
bus,vm_pu,va_degree,p_mw,q_mvar
1,1.000319,0.000133,115.529252,48.949249
7966,1.023981,-0.044151,-1.482869,-0.535732
7967,1.030284,-0.038210,-5.142586,-1.857578
7968,1.029609,-0.038192,-1.845564,-0.666641
7969,1.027721,-0.038867,-3.175054,-1.146940
7970,1.029070,-0.038116,-2.663678,-0.962180
7971,1.030170,-0.037857,-1.896759,-0.685119
7972,1.029224,-0.037528,-0.715922,-0.258610
7973,1.037122,-0.040866,-3.128732,-1.130114
7974,1.037465,-0.041066,-0.971596,-0.350999
7975,1.021238,-0.034526,-1.640938,-0.592806
7976,1.022501,-0.034614,-4.365139,-1.576744
7977,1.022519,-0.034468,-2.975204,-1.074789
7978,1.038401,-0.040514,-0.618295,-0.223320
7979,1.037777,-0.040999,-1.748058,-0.631379
7980,1.022706,-0.033819,-1.482865,-0.535681
7981,1.026487,-0.050463,-2.719508,-0.982420
7982,1.037453,-0.040918,-0.153435,-0.055465
7983,1.036422,-0.042873,-2.510326,-0.906845
7984,1.035555,-0.041406,-2.054761,-0.742168
7985,1.021672,-0.043894,-0.294395,-0.106369
7986,1.030889,-0.038027,-0.270274,-0.097648
7987,1.021769,-0.035298,-0.287534,-0.103937
7988,1.028893,-0.038505,-0.266873,-0.096419
7989,1.038086,-0.041497,-0.266519,-0.096249
7990,1.038300,-0.040461,-0.287559,-0.103884
7991,1.023911,-0.034427,-0.268579,-0.096955
7992,1.024351,-0.035048,-0.280797,-0.101410
7993,1.034927,-0.041690,-0.321714,-0.116247
7994,1.029854,-0.037499,-0.330578,-0.119415
7995,1.021429,-0.034249,-0.271427,-0.098108
7996,1.037860,-0.042687,-0.322366,-0.116432
7997,1.029428,-0.037669,-0.300130,-0.108348
7998,1.021583,-0.035904,-0.294434,-0.106350
7999,1.039189,-0.040631,-0.356885,-0.128960
8000,1.023300,-0.034362,-0.277436,-0.100265
8001,1.038749,-0.040680,-0.371120,-0.134102
8002,1.021815,-0.034628,-0.279499,-0.100945
8003,1.022720,-0.034008,-0.279476,-0.100927
8004,1.022420,-0.034582,-0.276852,-0.099985
8005,1.037099,-0.041748,-0.282527,-0.102091
8006,1.020763,-0.034556,-0.382997,-0.138433
8007,1.035417,-0.040921,-0.277331,-0.100199
8395,1.023871,-0.050380,-0.236322,-0.094645
8396,1.024378,-0.050127,-0.240068,-0.096212
8397,1.024857,-0.049408,-0.129250,-0.050686
8398,1.025481,-0.050072,-0.152023,-0.060790
8399,1.024706,-0.049630,-0.090204,-0.035686
8400,1.035936,-0.042595,-0.069950,-0.027136
8401,1.034643,-0.041966,-0.365160,-0.145801
8402,1.035517,-0.041835,-0.279058,-0.109307
8403,1.026483,-0.050302,-0.159926,-0.061879
8404,1.021006,-0.034713,-0.086947,-0.034193
8405,1.021276,-0.033691,-0.194541,-0.076826
8406,1.020730,-0.034642,-0.056554,-0.021632
8407,1.026094,-0.050260,-0.266598,-0.103896
8408,1.019893,-0.034848,-0.188430,-0.073748
8409,1.020733,-0.034453,-0.036946,-0.013879
8410,1.021338,-0.034532,-0.139526,-0.055390
8411,1.025645,-0.049288,-0.101963,-0.039651
8412,1.034270,-0.041930,-0.270646,-0.105530
8413,1.026801,-0.050182,-0.150462,-0.059865
8414,1.021081,-0.034421,-0.068039,-0.026488
8415,1.025794,-0.050540,-0.129782,-0.051116
8416,1.025767,-0.049840,-0.158443,-0.061333
8417,1.022020,-0.035273,-0.134938,-0.053323
8418,1.020786,-0.033198,-0.263737,-0.103017
8419,1.026524,-0.049471,-0.164352,-0.063760
8420,1.026954,-0.049528,-0.094424,-0.037660
8421,1.021724,-0.034630,-0.149641,-0.059688
8422,1.021463,-0.033919,-0.154426,-0.061775
8423,1.021466,-0.035192,-0.242505,-0.097137
8424,1.036300,-0.041303,-0.369186,-0.147306
8425,1.035036,-0.040618,-0.091779,-0.036590
8426,1.037039,-0.041397,-0.215955,-0.085721
8427,1.037255,-0.042505,-0.068110,-0.026434
8428,1.027067,-0.049458,-0.047807,-0.018253
8429,1.027332,-0.050869,-0.362953,-0.143767
8430,1.022602,-0.035262,-0.097414,-0.038907
8431,1.022186,-0.035528,-0.205676,-0.082463
8432,1.036136,-0.041104,-0.269083,-0.104898
8433,1.036756,-0.040927,-0.270853,-0.105737
8434,1.037173,-0.040702,-0.170462,-0.066258
8435,1.021535,-0.035291,-0.258270,-0.100538
8436,1.022086,-0.033669,-0.098272,-0.037961
8437,1.022053,-0.035309,-0.201949,-0.079451
8438,1.035189,-0.042210,-0.061003,-0.023572
8439,1.022907,-0.034627,-0.063451,-0.024437
8440,1.036136,-0.041198,-0.343266,-0.136731
8441,1.036492,-0.040927,-0.219717,-0.087325
8442,1.036026,-0.040972,-0.069556,-0.026997
8443,1.037163,-0.041288,-0.069477,-0.026931
8444,1.035442,-0.040859,-0.311751,-0.122778
8445,1.026547,-0.049790,-0.076377,-0.029863
8446,1.036475,-0.041569,-0.832451,-0.270852
8447,1.035923,-0.040025,-0.254028,-0.099515
8448,1.036387,-0.041285,-0.078202,-0.030628
8449,1.035989,-0.040543,-0.176794,-0.068922
8450,1.038773,-0.040919,-0.000099,0.000024
8451,1.036454,-0.041232,-0.082768,-0.032696
8452,1.036228,-0.041058,-0.232663,-0.092741
8453,1.021803,-0.035502,-0.161296,-0.062581
8454,1.037382,-0.040599,-0.141648,-0.056497
8455,1.037674,-0.040007,-0.156691,-0.060503
8456,1.026719,-0.049984,-0.110311,-0.042863
8457,1.027396,-0.050443,-0.010077,-0.003679
8458,1.023147,-0.034482,-0.118951,-0.046641
8459,1.037100,-0.040136,-0.096793,-0.038719
8460,1.021908,-0.033967,-0.096093,-0.038389
8461,1.022750,-0.034709,-0.036846,-0.013884
8462,1.021714,-0.033887,-0.197993,-0.077863
8463,1.036530,-0.041115,-0.091555,-0.036379
8464,1.036332,-0.040793,-0.210402,-0.083302
8465,1.035968,-0.040382,-0.252245,-0.097698
8466,1.036798,-0.040672,-0.376416,-0.150643
8467,1.037514,-0.041619,-0.016729,-0.006098
8468,1.023095,-0.033984,-0.127985,-0.050457
8469,1.022282,-0.033852,-0.265374,-0.103799
8470,1.038329,-0.041031,-0.192021,-0.075408
8471,1.037242,-0.039581,-0.281791,-0.109862
8472,1.036323,-0.040695,-0.251186,-0.097212
8473,1.022015,-0.034159,-0.135671,-0.053349
8474,1.023019,-0.034739,-0.100294,-0.038785
8475,1.037382,-0.040913,-0.171774,-0.066709
8476,1.021694,-0.033783,-0.034553,-0.012967
8477,1.021238,-0.033377,-0.180529,-0.071374
8478,1.037353,-0.040576,-0.154335,-0.061509
8479,1.037017,-0.039995,-0.072079,-0.027990
8480,1.022679,-0.035325,-0.087702,-0.034692
8481,1.022992,-0.033449,-0.247833,-0.099180
8482,1.022615,-0.033441,-0.222707,-0.088253
8483,1.022474,-0.034998,-0.314849,-0.124082
8484,1.037658,-0.040953,-0.210432,-0.083930
8485,1.023365,-0.034111,-0.093452,-0.037211
8486,1.023726,-0.034380,-0.000055,0.000013
8487,1.037874,-0.040441,-0.324867,-0.128333
8488,1.038702,-0.041020,-0.097833,-0.037660
8489,1.022301,-0.034720,-0.061993,-0.023901
8490,1.023084,-0.034802,-0.079174,-0.031144
8491,1.024065,-0.033127,-0.189538,-0.074354
8492,1.022337,-0.034493,-0.151086,-0.060384
8493,1.038010,-0.041635,-0.207845,-0.082152
8494,1.037987,-0.041294,-0.052069,-0.019849
8495,1.038162,-0.040149,-0.151712,-0.060546
8496,1.036996,-0.041057,-0.087384,-0.034540
8497,1.037721,-0.040543,-0.282937,-0.111157
8498,1.023638,-0.033799,-0.332957,-0.131896
8499,1.037870,-0.040394,-0.148709,-0.059287
8500,1.038230,-0.040749,-0.377794,-0.151238
8501,1.037549,-0.041347,-0.096064,-0.038290
8502,1.038156,-0.040426,-0.171518,-0.066427
8503,1.022541,-0.033923,-0.348400,-0.138492
8504,1.039340,-0.040571,-0.077009,-0.030164
8505,1.038173,-0.040486,-0.150143,-0.059833
8506,1.038599,-0.040170,-0.329537,-0.130685
8507,1.038563,-0.040151,-0.079794,-0.031282
8508,1.021960,-0.033635,-0.096995,-0.038636
8509,1.022368,-0.035094,-0.091092,-0.036068
8510,1.036976,-0.040118,-0.089614,-0.035461
8511,1.022598,-0.034743,-0.239441,-0.095732
8512,1.036948,-0.041423,-0.226287,-0.090437
8513,1.038896,-0.040374,-0.333584,-0.132249
8514,1.038435,-0.041367,-0.217863,-0.086557
8515,1.039341,-0.040316,-0.269692,-0.104916
8516,1.023894,-0.033334,-0.112939,-0.043922
8517,1.038517,-0.040603,-0.319760,-0.126286
8518,1.037773,-0.040535,-0.104694,-0.040653
8519,1.022540,-0.033683,-0.319190,-0.125802
8520,1.039154,-0.040242,-0.131830,-0.051925
8521,1.023515,-0.034692,-0.332204,-0.131580
8522,1.024691,-0.033985,-0.142363,-0.056460
8523,1.023017,-0.034776,-0.225202,-0.089474
8524,1.023631,-0.033646,-0.231651,-0.092465
8525,1.023651,-0.033575,-0.062177,-0.023992
8526,1.023423,-0.034962,-0.193112,-0.076296
8527,1.038054,-0.040815,-0.098110,-0.037608
8528,1.022731,-0.033281,-0.049435,-0.018768
8529,1.023437,-0.034444,-0.082462,-0.032515
8530,1.037984,-0.040212,-0.295844,-0.115825
8531,1.038071,-0.041659,-0.093374,-0.037116
8532,1.022716,-0.033770,-0.085884,-0.034026
8533,1.038096,-0.041406,-0.022109,-0.008193
8534,1.023105,-0.033653,-0.220370,-0.087570
8535,1.037473,-0.040661,-0.080634,-0.031714
8536,1.038937,-0.040610,-0.059086,-0.022616
8537,1.024016,-0.033689,-0.093611,-0.037218
8538,1.022742,-0.034561,-0.093380,-0.037181
8539,1.036460,-0.041229,-0.368662,-0.147764
8540,1.036875,-0.040435,-0.125649,-0.049385
8541,1.037305,-0.041124,-0.194862,-0.076482
8542,1.037777,-0.041011,-0.146741,-0.058526
8543,1.022627,-0.034605,-0.189441,-0.074533
8544,1.022787,-0.034909,-0.244623,-0.098184
8545,1.036912,-0.040870,-0.168783,-0.065560
8546,1.023672,-0.034630,-0.354157,-0.141632
8547,1.022371,-0.033771,-0.192007,-0.075301
8548,1.023827,-0.034036,-0.280589,-0.109455
8549,1.034655,-0.040229,-0.188101,-0.073588
8550,1.035054,-0.040948,-0.191601,-0.075525
8551,1.023825,-0.033512,-0.044388,-0.016722
8552,1.035436,-0.041742,-0.055565,-0.021266
8553,1.038813,-0.041222,-0.108162,-0.041871
8554,1.038342,-0.040983,-0.063055,-0.024266
8555,1.038803,-0.041291,-0.231277,-0.092196
8556,1.036164,-0.040924,-0.082419,-0.032427
8557,1.022096,-0.034018,-0.172098,-0.067159
8558,1.037869,-0.041067,-0.230687,-0.091885
8559,1.037939,-0.041031,-0.052409,-0.020020
8560,1.035821,-0.040120,-0.205933,-0.081229
8561,1.022225,-0.033653,-0.085589,-0.033752
8562,1.022194,-0.033161,-0.144789,-0.057700
8563,1.035805,-0.041813,-0.178723,-0.069563
8564,1.036071,-0.041029,-0.070005,-0.027200
8565,1.037903,-0.040955,-0.209460,-0.082597
8566,1.022040,-0.034535,-0.133294,-0.052612
8567,1.038777,-0.040292,-0.312601,-0.122977
8568,1.037863,-0.040396,-0.224075,-0.089135
8569,1.038161,-0.041401,-0.192534,-0.075577
8570,1.023084,-0.034592,-0.195046,-0.076997
8571,1.023479,-0.033738,-0.219332,-0.086877
8572,1.021384,-0.033541,-0.109324,-0.042470
8573,1.037176,-0.040375,-0.129390,-0.051016
8574,1.021066,-0.034318,-0.321512,-0.127171
8575,1.038598,-0.040282,-0.197298,-0.077611
8576,1.022768,-0.034625,-0.096135,-0.038321
8577,1.038843,-0.040598,-0.142218,-0.056502
8578,1.021712,-0.034078,-0.030483,-0.011335
8579,1.038352,-0.040083,-0.198772,-0.079250
8580,1.038484,-0.040656,-0.072488,-0.028375
8581,1.023367,-0.033513,-0.074563,-0.029090
8582,1.037168,-0.040186,-0.155574,-0.062153
8583,1.037868,-0.040688,-0.033479,-0.012519
8584,1.022315,-0.034243,-0.208767,-0.082657
8585,1.037169,-0.040289,-0.225384,-0.089685
8586,1.037074,-0.040827,-0.070235,-0.027419
8587,1.022789,-0.034920,-0.212222,-0.084126
8588,1.039011,-0.040891,-0.355106,-0.141619
8589,1.022776,-0.034390,-0.100871,-0.038980
8590,1.022295,-0.034665,-0.060126,-0.023152
8591,1.037042,-0.041371,-0.234375,-0.093705
8592,1.038195,-0.041205,-0.244971,-0.098420
8593,1.028951,-0.037528,-0.369068,-0.147202
8594,1.028503,-0.037923,-0.199380,-0.079005
8595,1.022367,-0.034064,-0.245867,-0.099259
8596,1.023634,-0.033236,-0.202371,-0.080083
8597,1.029205,-0.037356,-0.145211,-0.057677
8598,1.023377,-0.034649,-0.292200,-0.114397
8599,1.039178,-0.040754,-0.081612,-0.032034
8600,1.021665,-0.034943,-0.277050,-0.108708
8601,1.022284,-0.034892,-0.165660,-0.064413
8602,1.021907,-0.034661,-0.055578,-0.021300
8603,1.022442,-0.034431,-0.345467,-0.137514
8604,1.023040,-0.034700,-0.232001,-0.092418
8605,1.036820,-0.041332,-0.091862,-0.036501
8606,1.036740,-0.040965,-0.118716,-0.046505
8607,1.037476,-0.042469,-0.146448,-0.058088
8608,1.021952,-0.033603,-0.090978,-0.036171
8609,1.036965,-0.040278,-0.260368,-0.101268
8610,1.029743,-0.038125,-0.143531,-0.056914
8611,1.022790,-0.033595,-0.264931,-0.103212
8612,1.038229,-0.040720,-0.079249,-0.031173
8613,1.037404,-0.040667,-0.060067,-0.023119
8614,1.023081,-0.034784,-0.369585,-0.148436
8615,1.021346,-0.034165,-0.159929,-0.065002
8616,1.022017,-0.034316,-0.251785,-0.097676
8617,1.022177,-0.034610,-0.165292,-0.064273
8618,1.022305,-0.034498,-0.164324,-0.063740
8619,1.022278,-0.035246,-0.083139,-0.032682
8620,1.022566,-0.035141,-0.093595,-0.037275
8621,1.038558,-0.040474,-0.075231,-0.029348
8622,1.036745,-0.040933,-0.259196,-0.100846
8623,1.021740,-0.034319,-0.214625,-0.084985
8624,1.035700,-0.040757,-0.899664,-0.299182
8625,1.028867,-0.038856,-0.091529,-0.036301
8626,1.029035,-0.037072,-0.108112,-0.041964
8627,1.037242,-0.040061,-0.121898,-0.047694
8628,1.037265,-0.041423,-0.202536,-0.079527
8629,1.035897,-0.041285,-0.103406,-0.040127
8630,1.036626,-0.041539,-0.156267,-0.062296
8631,1.037911,-0.040550,-0.086170,-0.034104
8632,1.022798,-0.034953,-0.030860,-0.011464
8633,1.022376,-0.035136,-0.097887,-0.039128
8634,1.037631,-0.040955,-0.241193,-0.096229
8635,1.022587,-0.035706,-0.231778,-0.092503
8636,1.021954,-0.033773,-0.252556,-0.097929
8637,1.036776,-0.041031,-0.318295,-0.125828
8638,1.037361,-0.042444,-0.138633,-0.054929
8639,1.037771,-0.042150,-0.137006,-0.054269
8640,1.037232,-0.041392,-0.185814,-0.072621
8641,1.022485,-0.035104,-0.348826,-0.138571
8642,1.037051,-0.041519,-0.117737,-0.046016
8643,1.030060,-0.037772,-0.083386,-0.032769
8644,1.022636,-0.035107,-0.108468,-0.042116
8645,1.028145,-0.038335,-0.211871,-0.084102
8646,1.036769,-0.042031,-0.080539,-0.031590
8647,1.036869,-0.041233,-0.116700,-0.045633
8648,1.029734,-0.038322,-0.243512,-0.097721
8649,1.038316,-0.041160,-0.125434,-0.049133
8650,1.021913,-0.036421,-0.294304,-0.115495
8651,1.037489,-0.041314,-0.148094,-0.059063
8652,1.029226,-0.038144,-0.167456,-0.065306
8653,1.030162,-0.037860,-0.060338,-0.023090
8654,1.022733,-0.034848,-0.050198,-0.019094
8655,1.037602,-0.040652,-0.195362,-0.077105
8656,1.038197,-0.041468,-0.143952,-0.057283
8657,1.023306,-0.035047,-0.393061,-0.158900
8658,1.029419,-0.039159,-0.225092,-0.089479
8659,1.022386,-0.035176,-0.136087,-0.053932
8660,1.030947,-0.038240,-0.091204,-0.036295
8661,1.029885,-0.037900,-0.131404,-0.051905
8662,1.036076,-0.041668,-0.694478,-0.224953
8663,1.035403,-0.040955,-0.127296,-0.050221
8664,1.029214,-0.037988,-0.058110,-0.022327
8665,1.037621,-0.041503,-0.152257,-0.060755
8666,1.021522,-0.035179,-0.112204,-0.043703
8667,1.021935,-0.034057,-0.367075,-0.146654
8668,1.029319,-0.037394,-0.283651,-0.110652
8669,1.037481,-0.040604,-0.289616,-0.114319
8670,1.029745,-0.037442,-0.190026,-0.074436
8671,1.022306,-0.034516,-0.136387,-0.054110
8672,1.029582,-0.037829,-0.267240,-0.104348
8673,1.028885,-0.038203,-0.077537,-0.030408
8674,1.029256,-0.038768,-0.069325,-0.026913
8675,1.030145,-0.038678,-0.129395,-0.050862
8676,1.030664,-0.036967,-0.092542,-0.036750
8677,1.022554,-0.034943,-0.194666,-0.076488
8678,1.022154,-0.035585,-0.155064,-0.062083
8679,1.029760,-0.038031,-0.128926,-0.050687
8680,1.030244,-0.037792,-0.268120,-0.103761
8681,1.028649,-0.037636,-0.223615,-0.088832
8682,1.028770,-0.038188,-0.094830,-0.037697
8683,1.021139,-0.034805,-0.068567,-0.026655
8684,1.022130,-0.034323,-0.258644,-0.100698
8685,1.029306,-0.037121,-0.286732,-0.112679
8686,1.030460,-0.038008,-0.084281,-0.033118
8687,1.037501,-0.042148,-0.063721,-0.024715
8688,1.029023,-0.038018,-0.088427,-0.034981
8689,1.031487,-0.037642,0.000042,0.000095
8690,1.031290,-0.038012,-0.934180,-0.304902
8691,1.031093,-0.037320,-0.147408,-0.058784
8692,1.029149,-0.037530,-0.063478,-0.024508
8693,1.030015,-0.037570,-0.200613,-0.079287
8694,1.029747,-0.038533,-0.295578,-0.116226
8695,1.021969,-0.033964,-0.207315,-0.081726
8696,1.028586,-0.040224,-0.089306,-0.035310
8697,1.028313,-0.038953,-0.103886,-0.040053
8698,1.029912,-0.037540,-0.273673,-0.106752
8699,1.029883,-0.037204,-0.060519,-0.023249
8700,1.030308,-0.037185,-0.256426,-0.099483
8701,1.028422,-0.040194,-0.176025,-0.068469
8702,1.029159,-0.037562,-0.268760,-0.104218
8703,1.030655,-0.037567,-0.068595,-0.026574
8704,1.029805,-0.037248,-0.095694,-0.038092
8705,1.030091,-0.036458,-0.214235,-0.085383
8706,1.021367,-0.033792,-0.209186,-0.082631
8707,1.030364,-0.037883,-0.154123,-0.061586
8708,1.031459,-0.038337,-0.101430,-0.039214
8709,1.030081,-0.037088,-0.272966,-0.106401
8710,1.028834,-0.037257,-0.080643,-0.031580
8711,1.022174,-0.034217,-0.094731,-0.037808
8712,1.029841,-0.039616,-0.083192,-0.032737
8713,1.030047,-0.037649,-0.314278,-0.123766
8714,1.029388,-0.037362,-0.245358,-0.098365
8715,1.030108,-0.037830,-0.143532,-0.057275
8716,1.031972,-0.038424,-0.191898,-0.075315
8717,1.030918,-0.037542,-0.130970,-0.051785
8718,1.030912,-0.038262,-0.375836,-0.150298
8719,1.028988,-0.038457,-0.183481,-0.071823
8720,1.030141,-0.037843,-0.098245,-0.037980
8721,1.028156,-0.038796,-0.085110,-0.033730
8722,1.028853,-0.038972,-0.095200,-0.038023
8723,1.030369,-0.038417,-0.130829,-0.051406
8724,1.029741,-0.037960,-0.117494,-0.045862
8725,1.029259,-0.037601,-0.134501,-0.053036
8726,1.029513,-0.038357,-0.313088,-0.123126
8727,1.029783,-0.037930,-0.058682,-0.022452
8728,1.030336,-0.036818,-0.244703,-0.098458
8729,1.028720,-0.039199,-0.117149,-0.045902
8730,1.030576,-0.038151,-0.135925,-0.053514
8731,1.029227,-0.037540,-0.106824,-0.041413
8732,1.028865,-0.039450,-0.247045,-0.099120
8733,1.030696,-0.038043,-0.145080,-0.057922
8734,1.030982,-0.037300,-0.351865,-0.140671
8735,1.031589,-0.037032,-0.245068,-0.098378
8736,1.030993,-0.037138,-0.080600,-0.031655
8737,1.028924,-0.038096,-0.111995,-0.043604
8738,1.028940,-0.038693,-0.069031,-0.026867
8739,1.032150,-0.037890,-0.205555,-0.081146
8740,1.030467,-0.037761,-0.325244,-0.128617
8741,1.030597,-0.037293,-0.095075,-0.037975
8742,1.030434,-0.038253,-0.140425,-0.055795
8743,1.028547,-0.039036,-0.187246,-0.073101
8744,1.028266,-0.038253,-0.042953,-0.016189
8745,1.030574,-0.037711,-0.128857,-0.050858
8746,1.029288,-0.037265,-0.129723,-0.050949
8747,1.021984,-0.043275,-0.121786,-0.047568
8748,1.022824,-0.043174,-0.167764,-0.064975
8749,1.031749,-0.037119,-0.077407,-0.030205
8750,1.030594,-0.037335,-0.095779,-0.038416
8751,1.023951,-0.043396,-0.069976,-0.027210
8752,1.024641,-0.044344,-0.387880,-0.154590
8753,1.028116,-0.038111,-0.116904,-0.045825
8754,1.029254,-0.038299,-0.098458,-0.037956
8755,1.032145,-0.037248,-0.243639,-0.097577
8756,1.022279,-0.043848,-0.243243,-0.096717
8757,1.029099,-0.036563,-0.091469,-0.036431
8758,1.029100,-0.037564,-0.091580,-0.036429
8759,1.023356,-0.044274,-0.111823,-0.043356
8760,1.030432,-0.037803,-0.088272,-0.035023
8761,1.029535,-0.037609,-0.259699,-0.101962
8762,1.029106,-0.039136,-0.087855,-0.034585
8763,1.028216,-0.036930,-0.204114,-0.080505
8764,1.024065,-0.043595,-0.039338,-0.014863
8765,1.029998,-0.037420,-0.059724,-0.022961
8766,1.030810,-0.038036,-0.246699,-0.099260
8767,1.023155,-0.043750,-0.073516,-0.028701
8768,1.022252,-0.044092,-0.151928,-0.060493
8769,1.022861,-0.042966,-0.305466,-0.119409
8770,1.024499,-0.043865,-0.372986,-0.147593
8771,1.022782,-0.043746,-0.197260,-0.077127
8772,1.022687,-0.043950,-0.101907,-0.039503
8773,1.030061,-0.037833,-0.044663,-0.016844
8774,1.022642,-0.043979,-0.126290,-0.049556
8775,1.030257,-0.037929,-0.198207,-0.078342
8776,1.023334,-0.044108,-0.140251,-0.055465
8777,1.023230,-0.043270,-0.089496,-0.035396
8778,1.023578,-0.042749,-0.099279,-0.038400
8779,1.030299,-0.038312,-0.304528,-0.119977
8780,1.023763,-0.043749,-0.113264,-0.044051
8781,1.028018,-0.037992,-0.150437,-0.059989
8782,1.028511,-0.036005,-0.047692,-0.018055
8783,1.023768,-0.043527,-0.264177,-0.102289
8784,1.023503,-0.044226,-0.047713,-0.018203
8785,1.007757,-0.010442,-0.000074,0.000027
8786,1.007992,-0.010744,-0.000021,0.000007
8787,1.007159,-0.011497,-0.000139,0.000024
8788,1.006685,-0.010153,0.000062,-0.000028
